#Description: Redox ladder (incubation)
# Rate constants estimated to show different processes

SIMULATION
  SIMULATION_TYPE SUBSURFACE
  PROCESS_MODELS
    SUBSURFACE_FLOW flow
      MODE GENERAL
      OPTIONS
        ARITHMETIC_GAS_DIFFUSIVE_DENSITY
      /
    /
    SUBSURFACE_TRANSPORT transport
      GLOBAL_IMPLICIT
      NUMERICAL_JACOBIAN
    /
  /
END

SUBSURFACE

#=========================== useful transport parameters =======================
skip
SPECIFIED_VELOCITY
  UNIFORM? YES
  DATASET 0.d0 0.d0 0.d0
END
noskip
REFERENCE_LIQUID_DENSITY 1.d3


#=========================== chemistry ========================================
CHEMISTRY
  PRIMARY_SPECIES
    NH4+
    NO3-
    O2(aq)
    N2(aq)
    H+
    DOM1
    DOM2
    DOM3
    HCO3-
    CH4(aq)
    SO4--
    H2S(aq)
    Na+
    Cl-
    Ca++
    H2O
    HS-
    Fe+++
    Fe++
  /
  SECONDARY_SPECIES
    NH3(aq)
    OH-
    CO3--
#    NH4SO4-
    Urea(aq)
    HSO4-
#    H2SO4(aq)
    HNO3(aq)    
#    NaNO3(aq)
    NaCl(aq)
#    NaSO4-
    NaCO3-
    NaHCO3(aq)
    HCl(aq)
    CaCO3(aq)
    CaCl+
    CaCl2(aq)
    CaHCO3+
    CaSO4(aq)
    CO(aq)
    CO2(aq)
    Acetic_acid(aq)
    S--

#Fe++
#    FeOH+
#    FeSO4(aq)
#    FeHCO3+
#    Fe(OH)2(aq)
#    Fe(OH)3-
#    Fe(OH)4--
#    FeCO3(aq)
    FeCH3COO+
    FeCl+  
    FeCl4--  
    FeCl2(aq)

#Fe+++
#    FeNO3++
    FeSO4+
    FeCO3+ #flatlines [Fe+++]  
#    FeOH++ #flatlines [Fe+++]    
#    Fe(OH)2+ #causes exponential increase in [Fe+++]
#    Fe(OH)3(aq) #causes exponential increase in [Fe+++]
    Fe(OH)4- #causes exponential increase in [Fe+++]
    FeCl++
#    FeCl4-
  /

  DECOUPLED_EQUILIBRIUM_REACTIONS
    NO3-
    N2(aq)
    CH4(aq)
    H2S(aq)
    HS-
  /

  MINERALS
   SOM1
    Calcite
    Pyrite
    Troilite
    Fe(OH)3
    Halite
    Fe
    Fe(OH)2
    FeO
#    Ferrihydrite
#    Goethite
    Hematite
    Magnetite
    Pyrrhotite
    Sulfur
    Wustite
  /
  
  IMMOBILE_SPECIES
    SOM2
    nitrifiers
    denitrifiers
    FeReducers
    SulfRed
    MPB
    methanogens
    DOM4
  /

  GAS_SPECIES
    CO2(g)
    O2(g)
    N2(g)*
    NH3(g)
    CH4(g)
  /

  MINERAL_KINETICS
    Fe
      RATE_CONSTANT 1.d-16 mol/m^2-sec
      /
    Fe(OH)2
      RATE_CONSTANT 1.d-16 mol/m^2-sec
      /
    FeO
      RATE_CONSTANT 1.d-16 mol/m^2-sec
      /
!    Ferrihydrite
!      RATE_CONSTANT 1.d-16 mol/m^2-sec
!      /
!    Goethite
!      RATE_CONSTANT 1.d-16 mol/m^2-sec
!      /
    Hematite
      RATE_CONSTANT 1.d-16 mol/m^2-sec
      /
    Magnetite
      RATE_CONSTANT 1.d-16 mol/m^2-sec
      /
    Pyrrhotite
      RATE_CONSTANT 1.d-16 mol/m^2-sec
      /
    Sulfur
      RATE_CONSTANT 1.d-16 mol/m^2-sec
      /
    Wustite
      RATE_CONSTANT 1.d-16 mol/m^2-sec
      /
    Calcite
      RATE_CONSTANT 1.d-16
      /
    Pyrite
      RATE_CONSTANT 1.d-16
      /
    Troilite
      RATE_CONSTANT 1.d-16
      /
    Fe(OH)3
      RATE_CONSTANT 1.d-16
      /
    Halite
      RATE_CONSTANT 1.d-16
      /
    SOM1
      PREFACTOR
        RATE_CONSTANT 2.d-15 mol/cm^2-sec
        ACTIVATION_ENERGY 41.7d0
        PREFACTOR_SPECIES O2(aq)
          ALPHA 0.5d-1
        /
       /   
      /
     /
  
    

  TRUNCATE_CONCENTRATION 1.d-15


#DOM RESPIRATION
 MICROBIAL_REACTION
    REACTION DOM1 + 5.0 O2(aq) + H2O -> DOM2 + HCO3- + H+ + NH4+
    RATE_CONSTANT 2.0d-2 #Thompson et al 1995 mol-m3 bulk/(L water-mol biomass-sec)
    MONOD
      SPECIES_NAME O2(aq)
      HALF_SATURATION_CONSTANT 1.d0 #Gao et al 2010
    /
    MONOD
      SPECIES_NAME DOM1
      HALF_SATURATION_CONSTANT 1.d0 #Gao et al 2010
    /
  /

#DOM RESPIRATION
 MICROBIAL_REACTION
    REACTION DOM2 + 10.0 O2(aq) + H2O -> DOM3 + HCO3- + H+ + NH4+
    RATE_CONSTANT 2.0d-2 #Thompson et al 1995 mol-m3 bulk/(L water-mol biomass-sec)
    MONOD
      SPECIES_NAME O2(aq)
      HALF_SATURATION_CONSTANT 1.d0 #Gao et al 2010
    /
    MONOD
      SPECIES_NAME DOM2
      HALF_SATURATION_CONSTANT 1.d0 #Gao et al 2010
    /
  /

#NITRIFICATION
  MICROBIAL_REACTION
    REACTION 4.d0 NH4+ + O2(aq) + 6.0 HCO3- -> 4.d0 NO3- + DOM1 + 2.d0 H2O + 6.d0 H+
    RATE_CONSTANT 2.0d-2 #Thompson et al 1995 mol-m3 bulk/(L water-mol biomass-sec)
    MONOD
      SPECIES_NAME NH4+ 
      HALF_SATURATION_CONSTANT 1.d-2 #Gao et al 2010
    /
    MONOD
      SPECIES_NAME HCO3- 
      HALF_SATURATION_CONSTANT 1.d-2 #Gao et al 2010
    /
    INHIBITION
      SPECIES_NAME O2(aq)
      TYPE INVERSE_MONOD
      INHIBITION_CONSTANT 6.25d-6
    /
  /

#DENITRIFICATION DOM1
  MICROBIAL_REACTION 
    REACTION DOM1 + 4.d0 NO3- -> DOM2 + 6.d0 HCO3- + 2.d0 N2(aq) + 6.d0 H+
    RATE_CONSTANT 2.56d2 #Thompson et al 1995 mol-m3 bulk/(L water-mol biomass-sec)
    MONOD
      SPECIES_NAME NO3-
      HALF_SATURATION_CONSTANT 10.3d-1  #Gao et al 2010
    /
    MONOD
      SPECIES_NAME DOM1
      HALF_SATURATION_CONSTANT 10.d0
    /
    INHIBITION
      SPECIES_NAME O2(aq)
      TYPE MONOD
      INHIBITION_CONSTANT 6.25d-8   #using hypoxia as a requirement O2 must be < 2mg/L for DEN
    /
    BIOMASS
      SPECIES_NAME denitrifiers
      YIELD 0.01d0
    /
  /

#DENITRIFICATION DOM2
  MICROBIAL_REACTION 
    REACTION DOM2 + 8.d0 NO3- -> DOM3 + 8.d0 HCO3- + 4.d0 N2(aq) + 12.d0 H+
    RATE_CONSTANT 1.56d1 #Thompson et al 1995 mol-m3 bulk/(L water-mol biomass-sec)
    MONOD
      SPECIES_NAME NO3-
      HALF_SATURATION_CONSTANT 9.3d-1  #Gao et al 2010
    /
    MONOD
      SPECIES_NAME DOM2
      HALF_SATURATION_CONSTANT 9.d0
    /
    INHIBITION
      SPECIES_NAME O2(aq)
      TYPE MONOD
      INHIBITION_CONSTANT 6.25d-8   #using hypoxia as a requirement O2 must be < 2mg/L for DEN
    /
    BIOMASS
      SPECIES_NAME denitrifiers
      YIELD 0.01d0
    /
  /

#DENITRIFICATION DOM3
  MICROBIAL_REACTION 
    REACTION DOM3 + 8.d0 NO3- -> DOM4 + 8.d0 HCO3- + 4.d0 N2(aq) + 12.d0 H+
    RATE_CONSTANT 2.56d0 #Thompson et al 1995 mol-m3 bulk/(L water-mol biomass-sec)
    MONOD
      SPECIES_NAME NO3-
      HALF_SATURATION_CONSTANT 5.3d1  #Gao et al 2010
    /
    MONOD
      SPECIES_NAME DOM3
      HALF_SATURATION_CONSTANT 5.d1
    /
    INHIBITION
      SPECIES_NAME O2(aq)
      TYPE MONOD
      INHIBITION_CONSTANT 6.25d-8   #using hypoxia as a requirement O2 must be < 2mg/L for DEN
    /
    BIOMASS
      SPECIES_NAME denitrifiers
      YIELD 0.01d0
    /
  /

#Plant Root Uptake 
  MICROBIAL_REACTION 
    REACTION 4.d0 NO3- + 8.d0 NH4+ -> SOM2
    RATE_CONSTANT 9.56d-2 #Thompson et al 1995 mol-m3 bulk/(L water-mol biomass-sec)
    MONOD
      SPECIES_NAME NO3-
      HALF_SATURATION_CONSTANT 8.3d-4  #Gao et al 2010
    /
    MONOD
      SPECIES_NAME NH4+
      HALF_SATURATION_CONSTANT 2.3d-4  #Gao et al 2010
    /
    BIOMASS
      SPECIES_NAME MPB
      YIELD 0.01d0
    /
    INHIBITION
      SPECIES_NAME H2S(aq)
      TYPE MONOD
      INHIBITION_CONSTANT 6.25d-5  
    /
  /


#IRON REDUCTION DOM1
  MICROBIAL_REACTION 
    REACTION DOM1 + 3.d0 Fe+++ + H2O -> DOM2 + 3.d0 Fe++ + 6.d0 HCO3- + 15.d0 H+ 
    RATE_CONSTANT 2.d5 #Thompson et al 1995 mol-m3 bulk/(L water-mol biomass-sec)
    MONOD
      SPECIES_NAME Fe+++
      HALF_SATURATION_CONSTANT 1.3d6 #Gao et al 2010
    /
    MONOD
      SPECIES_NAME DOM1
      HALF_SATURATION_CONSTANT 2.d6
    /
    INHIBITION
      SPECIES_NAME O2(aq)
      TYPE MONOD
      INHIBITION_CONSTANT 6.25d-8  
    /
    INHIBITION
      SPECIES_NAME NO3-
      TYPE MONOD
      INHIBITION_CONSTANT 1.25d-5
    /
    BIOMASS
      SPECIES_NAME FeReducers
      YIELD 0.01d0
    /
  /

#IRON REDUCTION DOM2
  MICROBIAL_REACTION 
    REACTION DOM2 + 3.d0 Fe+++ + H2O -> DOM3 + 3.d0 Fe++ + 6.d0 HCO3- + 15.d0 H+ 
    RATE_CONSTANT 3.d1 #Thompson et al 1995 mol-m3 bulk/(L water-mol biomass-sec)
    MONOD
      SPECIES_NAME Fe+++
      HALF_SATURATION_CONSTANT 1.3d-2  #Gao et al 2010
    /
    MONOD
      SPECIES_NAME DOM2
      HALF_SATURATION_CONSTANT 2.d-2
    /
    INHIBITION
      SPECIES_NAME O2(aq)
      TYPE MONOD
      INHIBITION_CONSTANT 6.25d-8   
    /
    INHIBITION
      SPECIES_NAME NO3-
      TYPE MONOD
      INHIBITION_CONSTANT 1.25d-5
    /
    BIOMASS
      SPECIES_NAME FeReducers
      YIELD 0.01d0
    /
  /

#IRON REDUCTION DOM3
  MICROBIAL_REACTION 
    REACTION DOM3 + 3.d0 Fe+++ + H2O -> DOM4 + 3.d0 Fe++ + 6.d0 HCO3- + 15.d0 H+ 
    RATE_CONSTANT 2.d0 #Thompson et al 1995 mol-m3 bulk/(L water-mol biomass-sec)
    MONOD
      SPECIES_NAME Fe+++
      HALF_SATURATION_CONSTANT 1.3d-2  #Gao et al 2010
    /
    MONOD
      SPECIES_NAME DOM3
      HALF_SATURATION_CONSTANT 2.d-2
    /
    INHIBITION
      SPECIES_NAME O2(aq)
      TYPE MONOD
      INHIBITION_CONSTANT 6.25d-8  
    /
    INHIBITION
      SPECIES_NAME NO3-
      TYPE MONOD
      INHIBITION_CONSTANT 1.25d-5
    /
    BIOMASS
      SPECIES_NAME FeReducers
      YIELD 0.01d0
    /
  /

#Sulfate reduction DOM1
  MICROBIAL_REACTION 
    REACTION DOM1 + 6.d0 SO4-- + 2.0 H2O -> 12.d0 HCO3- + DOM2 + 6.d0 H2S(aq) 
    RATE_CONSTANT 1.56d2 #Thompson et al 1995 mol-m3 bulk/(L water-mol biomass-sec)
    MONOD
      SPECIES_NAME SO4--
      HALF_SATURATION_CONSTANT 6.3d0  #Gao et al 2010
    /
    MONOD
      SPECIES_NAME DOM1
      HALF_SATURATION_CONSTANT 4.3d0  #Gao et al 2010
    /
    INHIBITION
      SPECIES_NAME NO3-
      TYPE MONOD
      INHIBITION_CONSTANT 6.d-6
    /
    INHIBITION
      SPECIES_NAME O2(aq)
      TYPE MONOD
      INHIBITION_CONSTANT 1.d-9   
    /
    INHIBITION
      SPECIES_NAME Fe+++
      TYPE MONOD
      INHIBITION_CONSTANT 6.25d-9
    /
    BIOMASS
      SPECIES_NAME SulfRed
      YIELD 0.01d0
    /
  /

#Sulfate reduction DOM2
  MICROBIAL_REACTION 
    REACTION DOM2 + 6.d0 SO4-- + 2.0 H2O -> 12.d0 HCO3- + DOM3 + 6.d0 H2S(aq) 
    RATE_CONSTANT 1.56d1 #Thompson et al 1995 mol-m3 bulk/(L water-mol biomass-sec)
    MONOD
      SPECIES_NAME SO4--
      HALF_SATURATION_CONSTANT 1.3d0  #Gao et al 2010
    /
    MONOD
      SPECIES_NAME DOM2
      HALF_SATURATION_CONSTANT 1.3d0  #Gao et al 2010
    /
    INHIBITION
      SPECIES_NAME NO3-
      TYPE MONOD
      INHIBITION_CONSTANT 3d-6
    /
    INHIBITION
      SPECIES_NAME O2(aq)
      TYPE MONOD
      INHIBITION_CONSTANT 1d-9  
    /
    INHIBITION
      SPECIES_NAME Fe+++
      TYPE MONOD
      INHIBITION_CONSTANT 6.25d-9
    /
    BIOMASS
      SPECIES_NAME SulfRed
      YIELD 0.01d0
    /
  /

#Sulfate reduction DOM3
  MICROBIAL_REACTION 
    REACTION DOM3 + 6.d0 SO4-- + 2.0 H2O -> 12.d0 HCO3- + DOM4 + 6.d0 H2S(aq) 
    RATE_CONSTANT 1.56d0 #Thompson et al 1995 mol-m3 bulk/(L water-mol biomass-sec)
    MONOD
      SPECIES_NAME SO4--
      HALF_SATURATION_CONSTANT 6.3d0  #Gao et al 2010
    /
    MONOD
      SPECIES_NAME DOM3
      HALF_SATURATION_CONSTANT 6.3d0  #Gao et al 2010
    /
    INHIBITION
      SPECIES_NAME NO3-
      TYPE MONOD
      INHIBITION_CONSTANT 3d-6
    /
    INHIBITION
      SPECIES_NAME O2(aq)
      TYPE MONOD
      INHIBITION_CONSTANT 1d-9 
    /
    INHIBITION
      SPECIES_NAME Fe+++
      TYPE MONOD
      INHIBITION_CONSTANT 6.25d-8
    /
    BIOMASS
      SPECIES_NAME SulfRed
      YIELD 0.01d0
    /
  /

#Methane oxidation
  MICROBIAL_REACTION 
    REACTION CH4(aq) + SO4-- -> HCO3- + H2O + HS- 
    RATE_CONSTANT 9.56d8 
    MONOD
      SPECIES_NAME SO4--
      HALF_SATURATION_CONSTANT 6.3d-1  #Gao et al 2010
    /
    MONOD
      SPECIES_NAME CH4(aq)
      HALF_SATURATION_CONSTANT 6.3d-1  #Gao et al 2010
    /
    BIOMASS
      SPECIES_NAME methanogens
      YIELD 0.01d0
    /
  /

#Methane oxidation
  MICROBIAL_REACTION 
    REACTION CH4(aq) + 2.d0 O2(aq) -> HCO3- + H2O + H+
    RATE_CONSTANT 9.56d6 
    MONOD
      SPECIES_NAME O2(aq)
      HALF_SATURATION_CONSTANT 6.3d-1  #Gao et al 2010
    /
    MONOD
      SPECIES_NAME CH4(aq)
      HALF_SATURATION_CONSTANT 6.3d-1  #Gao et al 2010
    /
    BIOMASS
      SPECIES_NAME methanogens
      YIELD 0.01d0
    /
  /

#Methanogenesis DOM1
  MICROBIAL_REACTION 
    REACTION 10.d0 HCO3- + DOM1 + 88.d0 H+ -> 14.d0 CH4(aq) + 16.d0 H2O + DOM2
    RATE_CONSTANT 1.56d2 
    MONOD
      SPECIES_NAME DOM1
      HALF_SATURATION_CONSTANT 6.3d-1  #Gao et al 2010
    /
    MONOD
      SPECIES_NAME HCO3-
      HALF_SATURATION_CONSTANT 6.3d4  #Gao et al 2010
    /
    INHIBITION
      SPECIES_NAME SO4--
      TYPE MONOD
      INHIBITION_CONSTANT 1.d-5
    /
    INHIBITION
      SPECIES_NAME NO3-
      TYPE MONOD
      INHIBITION_CONSTANT 1.d-6   
    /
    INHIBITION
      SPECIES_NAME Fe+++
      TYPE MONOD
      INHIBITION_CONSTANT 4d-10
    /
    INHIBITION
      SPECIES_NAME O2(aq)
      TYPE MONOD
      INHIBITION_CONSTANT 4d-10   
    /
    BIOMASS
      SPECIES_NAME methanogens
      YIELD 0.01d0
    /
  /

#Methanogenesis DOM2
  MICROBIAL_REACTION 
    REACTION 10.d0 HCO3- + DOM2 + 88.d0 H+ -> 14.d0 CH4(aq) + 16.d0 H2O + DOM3
    RATE_CONSTANT 1.56d1 
    MONOD
      SPECIES_NAME DOM2
      HALF_SATURATION_CONSTANT 6.3d-1 #Gao et al 2010
    /
    MONOD
      SPECIES_NAME HCO3-
      HALF_SATURATION_CONSTANT 6.3d4  #Gao et al 2010
    /
    INHIBITION
      SPECIES_NAME SO4--
      TYPE MONOD
      INHIBITION_CONSTANT 1.25d-5
    /
    INHIBITION
      SPECIES_NAME NO3-
      TYPE MONOD
      INHIBITION_CONSTANT 1.25d-6   
    /
    INHIBITION
      SPECIES_NAME Fe+++
      TYPE MONOD
      INHIBITION_CONSTANT 6.25d-10
    /
    INHIBITION
      SPECIES_NAME O2(aq)
      TYPE MONOD
      INHIBITION_CONSTANT 6.25d-10  
    /
    BIOMASS
      SPECIES_NAME methanogens
      YIELD 0.01d0
    /
  /

#Methanogenesis DOM3
  MICROBIAL_REACTION 
    REACTION 10.d0 HCO3- + DOM3 + 66.d0 H+ -> 12.d0 CH4(aq) + 9.d0 H2O + DOM4
    RATE_CONSTANT 1.56d0 
    MONOD
      SPECIES_NAME DOM3
      HALF_SATURATION_CONSTANT 6.3d-1  
    /
    MONOD
      SPECIES_NAME HCO3-
      HALF_SATURATION_CONSTANT 6.3d4 
    /
    INHIBITION
      SPECIES_NAME SO4--
      TYPE MONOD
      INHIBITION_CONSTANT 1.25d-5
    /
    INHIBITION
      SPECIES_NAME NO3-
      TYPE MONOD
      INHIBITION_CONSTANT 1.25d-6   
    /
    INHIBITION
      SPECIES_NAME Fe+++
      TYPE MONOD
      INHIBITION_CONSTANT 6.25d-10
    /
    INHIBITION
      SPECIES_NAME O2(aq)
      TYPE MONOD
      INHIBITION_CONSTANT 6.25d-10   
    /
    BIOMASS
      SPECIES_NAME methanogens
      YIELD 0.01d0
    /
  /

  LOG_FORMULATION
  DATABASE ./test3d.dat

  OUTPUT
skip
    PH
    TOTAL
    ALL
    SECONDARY_SPECIES
    MINERALS
noskip
      FREE_ION
      H+
      NH4+
      NH3(aq)
      OH-
      NO3-
      O2(aq)
      CO2(aq)
      CH4(aq)
      H2S(aq)
      Fe+++
      Fe++
      HCO3-
      SO4--
      DOM1
      DOM2
      DOM3
      DOM4
      SOM1
      PH
skip
      SO4--
      CO3--
      HS-
      S--
      Fe+++
      Fe++
      Ca++
      FeNO3++
      FeOH++ #flatliner
      FeSO4+
      FeCO3+ #flatliner
      Fe(OH)2+ #problem child
      Fe(OH)3(aq) #problem child
      Fe(OH)4- #problem child
      FeCl++
      FeCl4-
      N2(aq)
      NH4SO4-
      Urea(aq)
      HSO4-
      H2SO4(aq)
      HNO3(aq)    
      nitrifiers
      denitrifiers
      methanogens
      MPB
      SOM1
noskip
  /
END

#=========================== transport constraints ============================
CONSTRAINT initial
  CONCENTRATIONS
    NH4+        3.d-8      T
    NO3-        4.5d-7     T
    O2(aq)      2.06d-5    T  
    N2(aq)      4.65d-10   T 
    H+          7.5d0      P
    DOM1        1.d-6      T
    DOM2        1.d-6      T
    DOM3        1.d-6      T
    HCO3-       6.6d-4     T 
    CH4(aq)     5.d-8      T
    SO4--       2.8e-4     T
    H2S(aq)     7.4d-7     T
    Na+         4.69d-2    T
    Cl-         5.46d-2    T
    Ca++        0.02d0     T 
    H2O         5.56d1     T
    HS-         1.d-15     T
    Fe++        1.d-9     T 
    Fe+++       1.5d-5   T 
    /
  IMMOBILE     # [mol/m^3 bulk]
    nitrifiers    1.d-8
    denitrifiers  1.d-8
    MPB           1.d-8
    methanogens   1.d-8
    SOM2          1.d-15
    DOM4          1.d-15
    FeReducers    1.d-15
    SulfRed       1.d-15
    /
  MINERALS
    SOM1          2.d-2     1. cm^2/cm^3
    Calcite       0.d0      1. cm^2/cm^3
    Pyrite        1.d-15     1. cm^2/cm^3
    Troilite      1.d-15    1. cm^2/cm^3
    Fe(OH)3       1.d-15    1. cm^2/cm^3
    Halite        1.d-10    1. cm^2/cm^3
    Fe            1.75d-15  1. cm^2/cm^3
    Fe(OH)2       1.75d-15  1. cm^2/cm^3
    FeO           1.75d-15  1. cm^2/cm^3
!    Ferrihydrite  1.75d-15  1. cm^2/cm^3
!    Goethite      1.75d-15  1. cm^2/cm^3
    Hematite      1.75d-15  1. cm^2/cm^3
    Magnetite     1.75d-15  1. cm^2/cm^3
    Pyrrhotite    1.75d-15  1. cm^2/cm^3
    Sulfur        1.75d-15  1. cm^2/cm^3
    Wustite       1.75d-15  1. cm^2/cm^3
    /
END

CONSTRAINT inflow
  CONCENTRATIONS
    NH4+        1.d-5     G NH3(g)
    NO3-        6.9d-6     T
    O2(aq)      2.43d-3    G O2(g)  
    N2(aq)      4.57d-4    G N2(g)* 
    H+          8.0d0      P
    DOM1        1.d-2      T !0
    DOM2        1.5d-2     T !0
    DOM3        4.d-2      T !0
    HCO3-       6.6d-4     G CO2(g) 
    CH4(aq)     1.d-8      G CH4(g)
    SO4--       5.8e-4     T
    H2S(aq)     7.4d-7     T
    Na+         4.69d-2    T
    Cl-         5.46d-2    T
    Ca++        0.02d0     T 
    H2O         5.56d1     T
    HS-         1.d-15     T
    Fe++        1.d-9     T 
    Fe+++       1.5d-5    T 
  /
END

CONSTRAINT evap
  CONCENTRATIONS
    NH4+        1.d-5      G NH3(g)
    NO3-        1.d-20     T
    O2(aq)      2.43d-3    G O2(g)  
    N2(aq)      4.57d-4    G N2(g)* 
    H+          7.5d0      P
    DOM1        1.d-20      T !0
    DOM2        1.5d-20     T !0
    DOM3        4.d-20      T !0
    HCO3-       6.6d-4     G CO2(g) 
    CH4(aq)     1.d-8      G CH4(g)
    SO4--       5.8e-20     T
    H2S(aq)     7.4d-20     T
    Na+         4.69d-20    T
    Cl-         5.46d-20    T
    Ca++        0.02d-20     T 
    H2O         5.56d1     T
    HS-         1.d-20     T
    Fe++        1.d-20     T 
    Fe+++       1.5d-20    T
  /
END

#=========================== solver options ===================================
LINEAR_SOLVER TRANSPORT
  !SOLVER DIRECT
  SOLVER ITERATIVE     ! default: ITERATIVE or KRYLOV: KSP_TYPE of BCGS and PC_TYPE of BJACOBI, if not modified below
  PC_TYPE JACOBI       ! default (iterative): BJACOBI. 
  KSP_TYPE fgmres      ! default: BCGS. NOT much difference 
END

NEWTON_SOLVER TRANSPORT
  ATOL 1.d-20
  RTOL 1.d-15
  STOL 1.d-10
  ITOL 1.d-10
END

#=========================== discretization ===================================
GRID
  TYPE structured
  NXYZ 1 1 15
  DXYZ 
     1 
     1 
     13.851152141963599d0 \ 
     11.126150294204420d0 \ 
     6.7483512780057175d0 \ 
     4.0930819526214002d0 \ 
     2.4825796969813321d0 \     
     1.5057607013992766d0 \
     0.91329003158906108d0 \
     0.55393840536868488d0 \
     0.33598062644843263d0 \
     0.20378255101043175d0 \
     0.12360036510228053d0 \
     7.4967410986208557d-002 \
     4.5470033242413201d-002 \
     3.7591787718d-002 \
!     2.7578969259676251d-002 \
!     1.0012817916255204d-002 \
     7.5000000000000000d-003 
!     2.5000000000000000d-003 
  /
END

#=========================== fluid properties =================================
FLUID_PROPERTY
  PHASE LIQUID
  DIFFUSION_COEFFICIENT 1.d-4
END

FLUID_PROPERTY
  PHASE gas
  DIFFUSION_COEFFICIENT 5.000d-06
END

#=========================== material properties ==============================
MATERIAL_PROPERTY soil1
  ID 1
  POROSITY 0.25d0
  SOIL_COMPRESSIBILITY_FUNCTION DEFAULT     ! BRAGFLO compressed porosity has mathematical issue at high pressure
  ! 1d-7~1d-8 equivalent to ice expansion of volume, upon 'default' or 'BRAGFLO'
  ! beyond this range may cause tiny-time stepping
  SOIL_COMPRESSIBILITY 1.d-07               ! 1d-7~1d-8 is a critical value for freezing expansion in soil;
  SOIL_REFERENCE_PRESSURE 201325.d0
  ROCK_DENSITY 2650.0d0
  SPECIFIC_HEAT 830.0d0
  THERMAL_CONDUCTIVITY_DRY 0.12037926674717922d0
  THERMAL_CONDUCTIVITY_WET 1.6082691464310437d0
  THERMAL_COND_EXPONENT 0.45d0
  THERMAL_CONDUCTIVITY_FROZEN 2.29d+00
  THERMAL_COND_EXPONENT_FROZEN 0.95d0
  CHARACTERISTIC_CURVES sf01
  PERMEABILITY
    PERM_X 6.5870260083342112E-013
    PERM_Y 6.5870260083342112E-013
    PERM_Z 6.5870260083342112E-013
  /
/
#=========================== characteristic curves ============================
CHARACTERISTIC_CURVES sf01
  SATURATION_FUNCTION VAN_GENUCHTEN
    LIQUID_RESIDUAL_SATURATION 0.d0
    ALPHA 1.d-4
    M 0.5d0
    MAX_CAPILLARY_PRESSURE 1.d6
  /
  PERMEABILITY_FUNCTION MUALEM
    PHASE LIQUID
    LIQUID_RESIDUAL_SATURATION 0.d0
    M 0.5d0
  /
  PERMEABILITY_FUNCTION MUALEM_VG_GAS
    PHASE GAS
    LIQUID_RESIDUAL_SATURATION 0.d0
    GAS_RESIDUAL_SATURATION 1.d-40
    M 0.5d0
  /
END

#=========================== output options ===================================
OUTPUT
  VARIABLES
    LIQUID_PRESSURE
    LIQUID_SATURATION
  /
    FORMAT TECPLOT POINT
    PERIODIC TIME 3600 s
  /

skip
OUTPUT
  PERIODIC_OBSERVATION TIMESTEP 100
  TIMES y 0. 5. 10. 25. 50.
  FORMAT TECPLOT POINT
#  FLUXES
#  LIQUID_PRESSURE
#  LIQUID_SATURATION
END
noskip
#=========================== times ============================================
TIME
  FINAL_TIME 2.d0 d
  INITIAL_TIMESTEP_SIZE 0.5d0 h
  MAXIMUM_TIMESTEP_SIZE 12.d0 h
END

#=========================== regions ==========================================
REGION top
  COORDINATES
    0.d0 1.d0 42.103197276099188d0
    0.d0 1.d0 42.103197276099188d0
  /
  FACE TOP
END

REGION bottom
  COORDINATES
    0.d0 1.d0 0.0d0
    0.d0 1.d0 0.0d0
  /
  FACE BOTTOM
END

REGION all
  COORDINATES
    0.d0 1.d0 0.d0
    0.d0 1.d0 42.103197276099188d0
  /
  FACE TOP
END

REGION horizon01
  COORDINATES
    0.d0 1.d0 42.012635455680844d0         ! top 3 CLM-layers of ~0.09 m
    0.d0 1.d0 42.103197276099188d0
  /
END

REGION horizon02
  COORDINATES
    0.d0 1.d0 41.103197276d0
    0.d0 1.d0 42.012635455680844d0
  /
END

REGION horizon03
  COORDINATES
    0.d0 1.d0 0.0d0
    0.d0 1.d0 41.103197276d0
  /
END

#=========================== observation points ===============================
OBSERVATION
  REGION horizon01
END

OBSERVATION
  REGION horizon02
END

OBSERVATION
  REGION horizon03
END

#=========================== transport conditions =============================
TRANSPORT_CONDITION initial
  TYPE dirichlet
  CONSTRAINT_LIST
    0.d0 initial
  /
END

TRANSPORT_CONDITION inflow
  TYPE dirichlet
  CONSTRAINT_LIST
   0.d0 inflow
  /
END

TRANSPORT_CONDITION evap
  TYPE dirichlet
  CONSTRAINT_LIST
    0.d0 evap
  /
END

skip
TRANSPORT_CONDITION tide_precip_mix
  TYPE dirichlet
  CONSTRAINT_LIST
   10.d0 inflow
  /
END

BOUNDARY_CONDITION sed_water_interface
  TRANSPORT_CONDITION tide_precip_mix
  FLOW_CONDITION inflow
  REGION top
END
noskip
#=========================== transport conditions =============================

FLOW_CONDITION soil1
  TYPE
    LIQUID_PRESSURE dirichlet
    MOLE_FRACTION dirichlet
    TEMPERATURE dirichlet
  /
  LIQUID_PRESSURE 200159.412d0
  MOLE_FRACTION 1.d-10
  TEMPERATURE 25.d0
/

FLOW_CONDITION inflow
  TYPE
    LIQUID_PRESSURE dirichlet
    MOLE_FRACTION dirichlet
    TEMPERATURE dirichlet
  /
  LIQUID_PRESSURE 200159.412d0
  MOLE_FRACTION 1.d-10
  TEMPERATURE 25.d0
/

skip
FLOW_CONDITION inflow
  TYPE
    RATE mass_rate
  /
RATE LIST
  TIME_UNITS hr
  DATA_UNITS kg/s
    24.	  0.d0	    0.d0	0.d0
    25.	  -5.d-3	  0.d0	0.d0
    26.	  -4.d-3	  0.d0	0.d0
    27.	  -3.d-3	  0.d0	0.d0
    28.	  -2.d-3	  0.d0	0.d0
    29.	  -1.d-3	  0.d0	0.d0
    30.	  0.d0	    0.d0	0.d0
    31.	  5.d-3    0.d0	0.d0
    32.	  4.d-3	    0.d0	0.d0
    33.	  3.d-3	    0.d0	0.d0
    34.	  2.d-3	    0.d0	0.d0
    35.	  1.d-3	    0.d0	0.d0
    36.	  0.d0	    0.d0	0.d0
    37.	  -5.d-3	  0.d0	0.d0
    38.	  -4.d-3	  0.d0	0.d0
    39.	  -3.d-3	  0.d0	0.d0
    40.	  -2.d-3	  0.d0	0.d0
    41.	  -1.d-3	  0.d0	0.d0
    42.	  0.d0	    0.d0	0.d0
    43.	  5.d-3	    0.d0	0.d0
    44.	  4.d-3	    0.d0	0.d0
    45.	  3.d-3	    0.d0	0.d0
    46.	  2.d-3	    0.d0	0.d0
    47.	  1.d-3	    0.d0	0.d0
    48.	  0.d0	    0.d0	0.d0
  /
 / 
noskip

FLOW_CONDITION evap
  TYPE
    RATE mass_rate
  /
     ! liquid gas   energy
  RATE -1.d-7  0.d0 0.d0 kg/s kg/s MW
/

skip
FLOW_CONDITION inflow
  TYPE
    LIQUID_PRESSURE dirichlet
    MOLE_FRACTION dirichlet
    TEMPERATURE dirichlet

  /
  LIQUID_PRESSURE 200159.412d0
  MOLE_FRACTION 1.d-10
  TEMPERATURE 25.d0
/
noskip
#=========================== condition couplers ===============================
# initial condition
INITIAL_CONDITION
  TRANSPORT_CONDITION initial
  FLOW_CONDITION soil1
  REGION all
END

SOURCE_SINK evap
  FLOW_CONDITION evap
  TRANSPORT_CONDITION evap
  REGION top
END

skip
SOURCE_SINK inflow
  FLOW_CONDITION inflow
  TRANSPORT_CONDITION inflow
  REGION top
END
noskip


BOUNDARY_CONDITION inflow
  FLOW_CONDITION inflow
  TRANSPORT_CONDITION inflow
  REGION top
END

skip
BOUNDARY_CONDITION outflow
  FLOW_CONDITION outflow
  TRANSPORT_CONDITION initial
  REGION inflow
END

SOURCE_SINK surface
  FLOW_CONDITION surface
  TRANSPORT_CONDITION initial
  REGION surface

END
noskip
#=========================== stratigraphy couplers ============================
STRATA
  REGION horizon01
  MATERIAL soil1
END

STRATA
  REGION horizon02
  MATERIAL soil1 
END

STRATA
  REGION horizon03
  MATERIAL soil1 
END


END_SUBSURFACE